Circuit: * C:\!!Product Design\Cornverter\Hardware\Spice Sims\Voct Outputs\Voct Outputs.asc

Direct Newton iteration failed to find .op point.  (Use ".option noopiter" to skip.)
Starting Gmin stepping
Gmin = 10
vernier = 0.5
Gmin = 1.67772
vernier = 0.25
vernier = 0.125
Gmin = 1.20453
vernier = 0.0625
vernier = 0.03125
Gmin = 1.14054
vernier = 0.0416667
vernier = 0.0208333
vernier = 0.0277778
Gmin = 1.08658
vernier = 0.0138889
vernier = 0.00694444
Gmin = 1.07346
vernier = 0.00925925
vernier = 0.00462963
Gmin = 1.05867
vernier = 0.00617283
vernier = 0.00308642
Gmin = 1.04892
vernier = 0.00411522
vernier = 0.00205761
Gmin = 1.0414
vernier = 0.00274348
Gmin = 1.03499
vernier = 0.00365797
vernier = 0.00182899
vernier = 0.00243865
vernier = 0.00121932
Gmin = 1.032
vernier = 0.00162576
Gmin = 1.02834
vernier = 0.00216769
vernier = 0.00108384
vernier = 0.00144512
Gmin = 1.02578
vernier = 0.000722562
Gmin = 1.02375
vernier = 0.000963415
vernier = 0.00128455
vernier = 0.000642277
Gmin = 1.02194
vernier = 0.000856369
vernier = 0.00114182
Gmin = 1.01985
vernier = 0.000570912
vernier = 0.000761216
Gmin = 1.01864
vernier = 0.00101495
vernier = 0.000507477
vernier = 0.000676636
Gmin = 1.01743
vernier = 0.000507477
Gmin = 1.01623
vernier = 0.000676636
vernier = 0.000507477
vernier = 0.000676636
vernier = 0.000507477
Gmin = 1.01545
vernier = 0.000676636
vernier = 0.000507477
Gmin = 1.01442
Gmin = 0
Gmin stepping failed

Starting source stepping with srcstepmethod=0
Source Step = 3.0303%
Source Step = 33.3333%
Source Step = 63.6364%
Source Step = 93.9394%
Source stepping succeeded in finding the operating point.


Date: Sat Jan 05 20:02:38 2019
Total elapsed time: 0.859 seconds.

tnom = 27
temp = 27
method = modified trap
totiter = 14829
traniter = 470
tranpoints = 236
accept = 164
rejected = 72
matrix size = 90
fillins = 81
solver = Normal
Thread vector: 2.8/2.1[2] 1.1/1.2[1] 0.6/1.1[1] 0.2/0.9[1]  2592/500
Matrix Compiler1: 6.60 KB object code size  1.1/0.6/[0.3]
Matrix Compiler2: 8.14 KB object code size  0.7/1.1/[0.3]

