Circuit: * C:\!!Product Design\Cornverter\Hardware\Spice Sims\MIDI Clock Outputs\MIDI Clock Outputs.asc

WARNING: Less than two connections to node VOUT.  This node is used by R1.
Direct Newton iteration for .op point succeeded.
Ignoring empty pin current: Ix(u1:vdd)
Ignoring empty pin current: Ix(u2:vdd)
Ignoring empty pin current: Ix(u1:vdd)
Ignoring empty pin current: Ix(u2:vdd)

Date: Sat Jan 05 17:25:27 2019
Total elapsed time: 0.068 seconds.

tnom = 27
temp = 27
method = modified trap
totiter = 2301
traniter = 2292
tranpoints = 1093
accept = 957
rejected = 136
matrix size = 23
fillins = 0
solver = Normal
Matrix Compiler1: 618 bytes object code size  0.1/0.1/[0.1]
Matrix Compiler2: 1.25 KB object code size  0.1/0.2/[0.1]

