Circuit: * C:\!!Product Design\Cornverter\Hardware\Spice Sims\Digi Outputs\Digi Outputs.asc

WARNING: Less than two connections to node VOUT.  This node is used by R1.
Direct Newton iteration for .op point succeeded.
Ignoring empty pin current: Ix(u1:vdd)
Ignoring empty pin current: Ix(u2:vdd)
Ignoring empty pin current: Ix(u1:vdd)
Ignoring empty pin current: Ix(u2:vdd)

Date: Sat Jan 05 23:53:29 2019
Total elapsed time: 0.166 seconds.

tnom = 27
temp = 27
method = modified trap
totiter = 2862
traniter = 2853
tranpoints = 1387
accept = 1242
rejected = 145
matrix size = 23
fillins = 0
solver = Normal
Matrix Compiler1: 600 bytes object code size  0.1/0.1/[0.1]
Matrix Compiler2: 1.26 KB object code size  0.1/0.2/[0.1]

