Circuit: * C:\!!Product Design\Cornverter\Hardware\Spice Sims\PWM Outputs\PWM Outputs.asc

WARNING: Specified period is not longer than the sum of Trise, Tfall, and Ton for v1.  Increasing period to 1.602e-005
Direct Newton iteration for .op point succeeded.
Ignoring empty pin current: Ix(u2:vdd)
Ignoring empty pin current: Ix(u3:vdd)
Ignoring empty pin current: Ix(u2:vdd)
Ignoring empty pin current: Ix(u3:vdd)

Date: Sun Jan 06 00:23:13 2019
Total elapsed time: 0.750 seconds.

tnom = 27
temp = 27
method = modified trap
totiter = 96425
traniter = 96407
tranpoints = 48189
accept = 41293
rejected = 6896
matrix size = 66
fillins = 25
solver = Normal
Matrix Compiler1: 3.12 KB object code size  0.6/0.3/[0.2]
Matrix Compiler2: 4.98 KB object code size  0.3/0.5/[0.3]

