Circuit: * C:\!!Product Design\Cornverter\Hardware\Spice Sims\PWM Outputs\PWM Outputs.asc

Direct Newton iteration for .op point succeeded.
Ignoring empty pin current: Ix(u2:vdd)
Ignoring empty pin current: Ix(u3:vdd)
Ignoring empty pin current: Ix(u2:vdd)
Ignoring empty pin current: Ix(u3:vdd)

Date: Sun Jan 06 01:11:56 2019
Total elapsed time: 30.142 seconds.

tnom = 27
temp = 27
method = modified trap
totiter = 2121396
traniter = 2121378
tranpoints = 990580
accept = 806231
rejected = 184349
matrix size = 66
fillins = 25
solver = Normal
Matrix Compiler1: 3.12 KB object code size  1.7/0.9/[0.5]
Matrix Compiler2: 4.98 KB object code size  1.0/1.5/[0.7]

