Circuit: * C:\!!Product Design\Cornverter\Hardware\Spice Sims\PWM Outputs\PWM Outputs.asc

Direct Newton iteration for .op point succeeded.
Ignoring empty pin current: Ix(u2:vdd)
Ignoring empty pin current: Ix(u3:vdd)
Ignoring empty pin current: Ix(u2:vdd)
Ignoring empty pin current: Ix(u3:vdd)

Date: Sun Jan 06 20:24:33 2019
Total elapsed time: 11.549 seconds.

tnom = 27
temp = 27
method = modified trap
totiter = 2063346
traniter = 2063328
tranpoints = 964997
accept = 801200
rejected = 163797
matrix size = 66
fillins = 25
solver = Normal
Matrix Compiler1: 3.12 KB object code size  0.6/0.3/[0.2]
Matrix Compiler2: 4.98 KB object code size  0.3/0.5/[0.3]

